12
	Energy:      10.5736998
C         -2.75097        0.46138        0.00370
C         -2.48307       -0.91177        0.00113
C         -1.15993       -1.36634        0.00050
C         -0.10470       -0.44776        0.00244
C         -0.37259        0.92540        0.00501
C         -1.69573        1.37997        0.00564
H         -1.90298        2.44228        0.00762
H          0.44377        1.63603        0.00651
H         -3.29942       -1.62242       -0.00037
H         -3.77458        0.81305        0.00418
H          0.91892       -0.79942        0.00195
H         -0.95267       -2.42864       -0.00148
